CM Free Space 1000 MHz square loop
CE
SY L=0.08
GW	1	9	-L/2	-L/2	0	-L/2	L/2	0	.00088
GW	2	9	-L/2	L/2	0	L/2	L/2	0	.00088
GW	3	9	L/2	L/2	0	L/2	-L/2	0	.00088
GW	4	9	L/2	-L/2	0	-L/2	-L/2	0	.00088
GE	0
GN	-1
EK
EX	0	4	5	0	1	0	0
FR	0	0	0	0	1000	0
EN
